# generated using pymatgen
data_Zr2Bi3O7
_symmetry_space_group_name_H-M   'P 1'
_cell_length_a   7.56392124
_cell_length_b   7.56392124
_cell_length_c   10.69700000
_cell_angle_alpha   90.00000000
_cell_angle_beta   90.00000000
_cell_angle_gamma   90.00000000
_symmetry_Int_Tables_number   1
_chemical_formula_structural   Zr2Bi3O7
_chemical_formula_sum   'Zr8 Bi12 O28'
_cell_volume   612.00643944
_cell_formula_units_Z   4
loop_
 _symmetry_equiv_pos_site_id
 _symmetry_equiv_pos_as_xyz
  1  'x, y, z'
loop_
 _atom_site_type_symbol
 _atom_site_label
 _atom_site_symmetry_multiplicity
 _atom_site_fract_x
 _atom_site_fract_y
 _atom_site_fract_z
 _atom_site_occupancy
  Bi  Bi0  1  0.25000000  0.75000000  0.25000000  1.0
  Bi  Bi1  1  0.25000000  0.75000000  0.75000000  1.0
  Bi  Bi2  1  0.75000000  0.25000000  0.25000000  1.0
  Zr  Zr3  1  0.75000000  0.25000000  0.75000000  1.0
  Zr  Zr4  1  0.50000000  0.50000000  1.00000000  1.0
  Zr  Zr5  1  0.50000000  0.50000000  0.50000000  1.0
  Zr  Zr6  1  1.00000000  1.00000000  1.00000000  1.0
  Bi  Bi7  1  1.00000000  1.00000000  0.50000000  1.0
  Bi  Bi8  1  1.00000000  0.50000000  1.00000000  1.0
  Bi  Bi9  1  1.00000000  0.50000000  0.50000000  1.0
  Zr  Zr10  1  0.50000000  1.00000000  1.00000000  1.0
  Bi  Bi11  1  0.50000000  1.00000000  0.50000000  1.0
  Bi  Bi12  1  0.25000000  0.25000000  0.25000000  1.0
  Zr  Zr13  1  0.25000000  0.25000000  0.75000000  1.0
  Zr  Zr14  1  0.75000000  0.75000000  0.25000000  1.0
  Zr  Zr15  1  0.75000000  0.75000000  0.75000000  1.0
  O  O16  1  0.25000000  0.50000000  0.12500000  1.0
  O  O17  1  0.25000000  0.50000000  0.62500000  1.0
  O  O18  1  0.75000000  1.00000000  0.12500000  1.0
  O  O19  1  0.75000000  1.00000000  0.62500000  1.0
  Bi  Bi20  1  1.00000000  0.75000000  0.37500000  1.0
  O  O21  1  1.00000000  0.75000000  0.87500000  1.0
  O  O22  1  0.50000000  0.25000000  0.37500000  1.0
  Bi  Bi23  1  0.50000000  0.25000000  0.87500000  1.0
  O  O24  1  0.75000000  0.50000000  0.37500000  1.0
  O  O25  1  0.75000000  0.50000000  0.87500000  1.0
  Bi  Bi26  1  0.25000000  1.00000000  0.37500000  1.0
  O  O27  1  0.25000000  1.00000000  0.87500000  1.0
  O  O28  1  1.00000000  0.25000000  0.37500000  1.0
  O  O29  1  1.00000000  0.25000000  0.87500000  1.0
  Bi  Bi30  1  0.50000000  0.75000000  0.37500000  1.0
  O  O31  1  0.50000000  0.75000000  0.87500000  1.0
  O  O32  1  0.25000000  0.50000000  0.37500000  1.0
  O  O33  1  0.25000000  0.50000000  0.87500000  1.0
  O  O34  1  0.75000000  1.00000000  0.37500000  1.0
  O  O35  1  0.75000000  1.00000000  0.87500000  1.0
  O  O36  1  0.75000000  0.50000000  0.12500000  1.0
  O  O37  1  0.75000000  0.50000000  0.62500000  1.0
  O  O38  1  0.25000000  1.00000000  0.12500000  1.0
  O  O39  1  0.25000000  1.00000000  0.62500000  1.0
  O  O40  1  1.00000000  0.75000000  0.12500000  1.0
  O  O41  1  1.00000000  0.75000000  0.62500000  1.0
  O  O42  1  0.50000000  0.25000000  0.12500000  1.0
  O  O43  1  0.50000000  0.25000000  0.62500000  1.0
  O  O44  1  1.00000000  0.25000000  0.12500000  1.0
  O  O45  1  1.00000000  0.25000000  0.62500000  1.0
  O  O46  1  0.50000000  0.75000000  0.12500000  1.0
  O  O47  1  0.50000000  0.75000000  0.62500000  1.0
