TITL NaLiTa2O6-278256-6811-1 -0.1290 115.186870 -2.10301132E+004 0 0  10 (R3) n - 1
REM
REM Run started: Fri, 24 Jun 2022 17:34:51 +0100 in /home/cjp20/work/RUNS/NaLiTa2O6/Collection
REM CASTEP 21.1 from code version a0ff0e6a+ default Fri Apr 30 22:53:39 2021 +0100
REM Functional Perdew Burke Ernzerhof Relativity Koelling-Harmon Dispersion off
REM Cut-off 740.0000 eV Grid scale 2.0000 Gmax 32.0540 1/A FBSC none
REM MP grid 5 5 5 Offset 0.000 0.000 0.000 No. kpts 23 Spacing 0.05
REM Total runtime: 4282.89 s
REM Overall efficiency: 99 %
REM
REM NaLiTa2O6.cell (22535017f21b4f507b55502ef82b1407)
REM ## AIRSS Version 0.9.3 xxxx 2022 commit e59fe544755158f72a
REM
REM
REM cmdline: crud.pl -mpinp 32
REM
REM
REM Ta 3|2.4|9|10|11|50U:60:51:52:43(qc=6)
REM O 2|1.1|17|20|23|20:21(qc=8)
REM Na 2|1.3|14|16|18|20U:30:21(qc=7)
REM Li 1|1.0|14|16|18|10U:20(qc=7)
REM
CELL 1.54180    5.36984    5.36984    5.55772   61.11210   61.11209   60.00000
LATT -1
SFAC Li O  Na Ta
Li     1  0.7041030469956  0.7041030469956 -2.1123091409867 1.0
O      2  0.6519995684384  0.0495278729606 -0.9655863995803 1.0
O      2  0.0495278729606  0.2640589581814 -0.9655863995803 1.0
O      2  0.2640589581814  0.6519995684384 -0.9655863995803 1.0
O      2  0.1430116238809  0.7369774069435 -1.4580262370926 1.0
O      2  0.7369774069435  0.5780372062682 -1.4580262370926 1.0
O      2  0.5780372062682  0.1430116238809 -1.4580262370926 1.0
Na     3  0.1776841732484  0.1776841732484 -0.5330525197452 1.0
Ta     4  0.9176662598482  0.9176662598482 -2.7529987795446 1.0
Ta     4  0.4141310832347  0.4141310832347 -1.2423932497042 1.0
END
