TITL NaLiTa2O6-284963-3235-1 -0.1732 122.853259 -2.10299630E+004 0 0  10 (R3) n - 1
REM
REM Run started: Fri, 24 Jun 2022 17:34:51 +0100 in /home/cjp20/work/RUNS/NaLiTa2O6/Collection
REM CASTEP 21.1 from code version a0ff0e6a+ default Fri Apr 30 22:53:39 2021 +0100
REM Functional Perdew Burke Ernzerhof Relativity Koelling-Harmon Dispersion off
REM Cut-off 740.0000 eV Grid scale 2.0000 Gmax 32.0540 1/A FBSC none
REM MP grid 5 5 4 Offset 0.000 0.000 0.000 No. kpts 42 Spacing 0.05
REM Total runtime: 3085.47 s
REM Overall efficiency: 79 %
REM
REM NaLiTa2O6.cell (22535017f21b4f507b55502ef82b1407)
REM ## AIRSS Version 0.9.3 xxxx 2022 commit e59fe544755158f72a
REM
REM
REM cmdline: crud.pl -mpinp 32
REM
REM
REM Ta 3|2.4|9|10|11|50U:60:51:52:43(qc=6)
REM O 2|1.1|17|20|23|20:21(qc=8)
REM Na 2|1.3|14|16|18|20U:30:21(qc=7)
REM Li 1|1.0|14|16|18|10U:20(qc=7)
REM
CELL 1.54180    5.31606    5.31606    5.88366   63.14304   63.14304   60.00000
LATT -1
SFAC Li O  Na Ta
Li     1  0.7928085699619  0.7928085699619 -2.3784257098858 1.0
O      2  0.1781893046089  0.5987356765058 -1.7476410371340 1.0
O      2  0.5987356765058  0.9707160560194 -1.7476410371340 1.0
O      2  0.9707160560194  0.1781893046089 -1.7476410371340 1.0
O      2  0.1050962563887  0.7193219079539 -1.1944611971169 1.0
O      2  0.7193219079539  0.3700430327743 -1.1944611971169 1.0
O      2  0.3700430327743  0.1050962563887 -1.1944611971169 1.0
Na     3  0.5186589787324  0.5186589787324 -1.5559769361971 1.0
Ta     4  0.3077835156427  0.3077835156427 -0.9233505469282 1.0
Ta     4  0.0084893014121  0.0084893014121 -0.0254679042363 1.0
END
