TITL NaLiTa2O6-R32 -0.0519 114.614051 -2.10300270E+004 0 0  10 (R32) n - 1
REM
REM Run started: Fri, 24 Jun 2022 17:34:51 +0100 in /home/cjp20/work/RUNS/NaLiTa2O6/Collection
REM CASTEP 21.1 from code version a0ff0e6a+ default Fri Apr 30 22:53:39 2021 +0100
REM Functional Perdew Burke Ernzerhof Relativity Koelling-Harmon Dispersion off
REM Cut-off 740.0000 eV Grid scale 2.0000 Gmax 32.0540 1/A FBSC none
REM MP grid 5 5 5 Offset 0.000 0.000 0.000 No. kpts 19 Spacing 0.05
REM Total runtime: 632.17 s
REM Overall efficiency: 73 %
REM
REM NaLiTa2O6.cell (22535017f21b4f507b55502ef82b1407)
REM ## AIRSS Version 0.9.3 xxxx 2022 commit e59fe544755158f72a
REM
REM
REM cmdline: crud.pl -mpinp 32
REM
REM
REM Ta 3|2.4|9|10|11|50U:60:51:52:43(qc=6)
REM O 2|1.1|17|20|23|20:21(qc=8)
REM Na 2|1.3|14|16|18|20U:30:21(qc=7)
REM Li 1|1.0|14|16|18|10U:20(qc=7)
REM
CELL 1.54180    5.37824    5.37824    5.52954   60.90109   60.90108   60.00000
LATT -1
SFAC Li O  Na Ta
Li     1  0.5000000000000  0.5000000000000 -1.5000000000000 1.0
O      2  0.5783191325736  0.4216808674264 -1.0000000000000 1.0
O      2  0.4216808674264 -0.0000000000000 -1.0000000000000 1.0
O      2 -0.0000000000000  0.5783191325736 -1.0000000000000 1.0
O      2  0.5000000000000  0.8909172748886 -1.5000000000000 1.0
O      2  0.1090827251114  0.5000000000000 -1.5000000000000 1.0
O      2  0.8909172748886  0.1090827251114 -1.5000000000000 1.0
Na     3 -0.0000000000000 -0.0000000000000  0.0000000000000 1.0
Ta     4  0.7509878132369  0.7509878132369 -2.2529634397107 1.0
Ta     4  0.2490121867631  0.2490121867631 -0.7470365602893 1.0
END
