# generated using pymatgen
data_NaLiTa2O6
_symmetry_space_group_name_H-M   'P 1'
_cell_length_a   5.54992560
_cell_length_b   5.54992560
_cell_length_c   5.54992500
_cell_angle_alpha   58.08423574
_cell_angle_beta   58.08423574
_cell_angle_gamma   58.08424081
_symmetry_Int_Tables_number   1
_chemical_formula_structural   NaLiTa2O6
_chemical_formula_sum   'Na1 Li1 Ta2 O6'
_cell_volume   115.56816681
_cell_formula_units_Z   1
loop_
 _symmetry_equiv_pos_site_id
 _symmetry_equiv_pos_as_xyz
  1  'x, y, z'
loop_
 _atom_site_type_symbol
 _atom_site_label
 _atom_site_symmetry_multiplicity
 _atom_site_fract_x
 _atom_site_fract_y
 _atom_site_fract_z
 _atom_site_occupancy
  Na  Na0  1  -0.00000000  0.00000000  0.00000000  1
  Li  Li1  1  0.50000000  0.50000000  0.50000000  1
  Ta  Ta2  1  0.24910379  0.24910379  0.24910379  1
  Ta  Ta3  1  0.75089621  0.75089621  0.75089621  1
  O  O4  1  0.42479852  0.57520148  -0.00000000  1
  O  O5  1  0.57520148  1.00000000  0.42479852  1
  O  O6  1  0.00000000  0.42479852  0.57520148  1
  O  O7  1  0.50000000  0.10707915  0.89292085  1
  O  O8  1  0.89292085  0.50000000  0.10707915  1
  O  O9  1  0.10707915  0.89292085  0.50000000  1
